<?xml version="1.0" encoding="UTF-8"?>

<!-- generated on 2024-12-06 12:06:17.177329 by randomTrips.py UNKNOWN
<configuration>
    <net-file value="test.net.xml"/>
    <route-file value="map.rou.xml"/>
    <length value="True"/>
    <validate value="True"/>
    <end value="1000.0"/>
</configuration>
-->

<!-- generated on 2024-12-06 12:06:16 by Eclipse SUMO duarouter Version 1.21.0
<duarouterConfiguration xmlns:xsi="http://www.w3.org/2001/XMLSchema-instance" xsi:noNamespaceSchemaLocation="http://sumo.dlr.de/xsd/duarouterConfiguration.xsd">

    <input>
        <net-file value="test.net.xml"/>
        <route-files value="trips.trips.xml"/>
    </input>

    <output>
        <output-file value="map.rou.xml"/>
        <alternatives-output value="NUL"/>
    </output>

    <time>
        <begin value="0"/>
        <end value="1000.0"/>
    </time>

    <report>
        <no-warnings value="true"/>
        <ignore-errors value="true"/>
        <no-step-log value="true"/>
    </report>

</duarouterConfiguration>
-->

<routes xmlns:xsi="http://www.w3.org/2001/XMLSchema-instance" xsi:noNamespaceSchemaLocation="http://sumo.dlr.de/xsd/routes_file.xsd">
    <vehicle id="0" depart="0.00">
        <route edges="356503092 1063918587 386756603#0 386756603#1 386756603#2 -386756603#2 -386756603#1 -386756603#0 -1063918587 -356503092 -1063918588 -154771129 -1064816960 4337566#0 4337566#1 4337566#2 1063918952 1063918596#0 1063918596#1 1019517068 38233263#0 38233263#1 386756604#0 386756604#1 386756604#2 559758439#0 559758439#1 559758442 1073033168#0 1073033168#1 559758438 559758440 559758441#0 559758441#1 1073033170 8064380#0 8064380#1 8064380#2 8064380#3 8064380#4 559758444 559758443#0 559758443#1 560014277#0 560014277#1 560014273 560014271 560014269 1081715916 560014268#0 560014268#1 8064377#0 8064377#1 1081715915 1081715914 1081715913 560014266#0 560014266#1 560014265 -560014265 -560014266#1 -560014266#0 -1081715913 -1081715914"/>
    </vehicle>
    <vehicle id="3" depart="3.00">
        <route edges="82282513#0 82282513#1 82282513#2 82282513#3 82282513#4 82282513#5 82282513#6 82282513#7 -82282513#7 -82282513#6 -82282513#5 -82282513#4 -82282513#3 -82282513#2 -82282513#1 -82282513#0 -82282518#7 -82282518#6 -82282518#5 -82282518#4 -82282518#3 8588027#5 8588027#6 8588027#7 8588027#8 1202797469 1202797468#0 1202797468#1 1081717008#0 1081717008#1 1081717008#2 4345090#6 4345090#7 1081715899#0 1081715899#1 1082669266 1081715898 -1222309814#2 -1222309814#1 -1222309814#0 -1082669264 -559661613#2 -559661613#1 -559661613#0 -1202330403 -559661614#1 -559661614#0 559405366 498389361#0 498389361#1 498389361#2 -1202330407#1 -1202330407#0 -559405368 -498389367 -559405367 -559405369 -746065785 -417156811#1 -417156811#0 -178433389#1 -178433389#0"/>
    </vehicle>
    <vehicle id="4" depart="4.00">
        <route edges="1076620898#1 1076620898#2 1076620898#3 232558841#2 -235377233#0 -1063918599 -4309985#2 -4309985#1 -4309985#0 8064319#0 8064319#1 8064319#2 8064319#3 1137018591 1137018592 1137018589#0 1137018589#1 8588062#0 8588062#1 8588062#2 8588062#3 8588062#4 8588062#5 8588062#6 8588062#7 8588062#8 8588062#9 8588062#10 8588062#11 8588062#12 -1093350599#1 -1093350599#0"/>
    </vehicle>
    <vehicle id="5" depart="5.00">
        <route edges="-4691186#1 -4691186#0 -1114892216#1 -1114892216#0 1114892215#0 1114892215#1 178433388#0 178433388#1 1114912804 1114912802 746063393 746063396 746063397#0 746063397#1 417156811#0 417156811#1 746065785 559405369 559405367 498389367 559405368 1202330407#0 1202330407#1 23837315#0 23837315#1 1202330413 253866056 1202330423 416955083 1202330420 1202330421 8064382#0 8064382#1 8064382#2 416709257 1202585795#3 416709266 415840858 1202585798#0 1202585798#1 1202585798#2 1202585798#3 1202585798#4 566767153 566767150#0 566767150#1 572481376#0 572481376#1 572481376#2 223184704#0 223184704#1 223184704#2 223184704#3 223184704#4 223184704#5 223184704#6 8064384#0 8064384#1 1313412309#0 1313412309#1 1313412309#2 1313412309#3 1313412309#4 178939751#0 178939751#1"/>
    </vehicle>
    <vehicle id="6" depart="6.00">
        <route edges="-1081715915 -8064377#1 -8064377#0 -560014268#1 -560014268#0 -1081715916 -560014269 -560014271 -560014273 -560014277#1 -560014277#0 -559661611#1 -559661611#0 -746165249 -559661612#1 -559661612#0 -178433387 -1081524782 -559661610#1 -559661610#0 1082669263 -559661613#2 -559661613#1 -559661613#0 -1202330403 -559661614#1 -559661614#0 559405366 498389361#0 498389361#1 498389361#2 -1202330407#1 -1202330407#0 -559405368 -498389367 -559405367 -559405369 416981557#0 416981557#1 498389378#0 498389378#1 1172592064#0 1172592064#1 559025252 1172592059 559099455 1172592063 1172592065 498389377#0 498389377#1 -498389377#1 -498389377#0"/>
    </vehicle>
    <vehicle id="8" depart="8.00">
        <route edges="-4691186#1 -4691186#0 -1114892216#1 -1114892216#0 1114892215#0 1114892215#1 178433388#0 178433388#1 1114912804 1114912802 746063393 746063396 746063397#0 746063397#1 746063399#0 746063399#1 498389378#0 498389378#1 1172592064#0 1172592064#1 559025252 1172592059 559099455 1172592063 1172592065 498389377#0 498389377#1 4309981 1172592069 1172592068#0 1172592068#1 1172592066#0 1172592066#1 1172592066#2 1172592067 173170900#0 173170900#1 173170901#0 173170901#1 173170901#2 559099464 559099466#0 559099466#1 559099466#2 559099465#0 559099465#1 254644871#0 254644871#1 181469580#0 181469580#1 556299731 1221959859 1191864097#0 1191864097#1 1191864097#2 1191864098 8064341#0 8064341#1 8064341#2 8064341#3 8064341#4 8064341#5 8064341#6 1072681689#0 1072681689#1 1072681692#0 1072681692#1 1072681692#2 8588109 38233266 1072681688#0 1072681688#1 1072681688#2 1097454786#0 1097454786#1 1097454787 38233265#0 38233265#1 38233265#2 38233265#3 38233265#4 8588113#0 8588113#1 8588113#2 8588113#3 8588113#4 8588113#5 -274149187#6 -274149187#5 -274149187#4 -274149187#3 -274149187#2 -274149187#1 -274149187#0 29145011#0 29145011#1 29145011#2 29145011#3"/>
    </vehicle>
    <vehicle id="9" depart="9.00">
        <route edges="8064314#2 8064314#3 -8064314#3 -8064314#2 -8064314#1 -8064314#0 -611913548#1 -611913548#0 -1137018590 -1137018589#2 -1137018589#1 -1137018589#0 -1137018592 -1137018591 -8064319#3 -8064319#2 -8064319#1 -8064319#0 -386756603#2 -386756603#1 -386756603#0 -1063918587 -356503092 -1063918588 -154771129 -1064816960 386756602#0 386756602#1 386756602#2 1064816971#0 1064816971#1 -187986575#1 -187986575#0 -1072685766 -1072685765 1072681687 187986577#0 187986577#1 1072681686 -140853131#2 -140853131#1 -140853131#0 -1072681692#2 -1072681692#1 -1072681692#0 -1072681689#1 -1072681689#0 -8064341#6 -8064341#5 1107978777#0 1107978777#1 -1043453147#4"/>
    </vehicle>
    <vehicle id="10" depart="10.00">
        <route edges="8063116#1 8063116#2 8588063#3 8588063#4 8064332#0 8064332#1 8064332#2 1106864438#3 1106864438#4 1106864438#5 8064333#0 8064333#1 8064333#2 1106864434#0 1106864434#1 1106864434#2 8064335 4400534#4 4400534#5 4400534#6 4400534#7 -8064339#9 -8064339#8 -8064339#7 -8064339#6 -8064339#5 -8064339#4 -8064339#3 -8064339#2 -8064339#1 -8064339#0 -85643946#9 -85643946#8 -85643946#7 4451751#0 4451751#1 4451751#2 4451751#3 4451751#4 4451751#5 4451751#6 4451751#7 4451751#8 4451751#9"/>
    </vehicle>
    <vehicle id="11" depart="11.00">
        <route edges="-85643946#8 -85643946#7 -85643946#6 -85643946#5 -85643946#4 -85643946#3 -85643946#2 -85643946#1 -85643946#0 -8064340 -4310642 -382141798#1 -382141798#0 -556299732 -254644871#1 -254644871#0 -559099465#1 -559099465#0 -559099466#2 -559099466#1 -559099466#0 -559099464 -173170901#2 -173170901#1 -173170901#0 -173170900#1 -173170900#0 -1172592067 -1172592066#2 -1172592066#1 -1172592066#0 -1172592068#1 -1172592068#0 -1172592069 -4309981 38710676#0 38710676#1 38710676#2 38710676#3 38710676#4 38710676#5 38710676#6 38710676#7 38710676#8 38710676#9 38710676#10 38710676#11 38710676#12 38710676#13 -38710676#13 -38710676#12 -38710676#11 -38710676#10 -38710676#9 -38710676#8 -38710676#7 -38710676#6 -38710676#5 -38710676#4"/>
    </vehicle>
    <vehicle id="12" depart="12.00">
        <route edges="8588068#1 8588068#2 4388706#9 4388706#10 4388706#11 4388706#12 4388706#13 4388706#14 4388706#15 4388706#16 4388706#17 4310644#0 4310644#1 4310644#2 4310644#3 4310644#4 4310644#5 4310644#6 8064341#2 8064341#3 8064341#4 8064341#5 8064341#6 1072681689#0 1072681689#1 1072681692#0 1072681692#1 1072681692#2 8588109 38233266 1072681688#0 1072681688#1 1072681688#2 1097454786#0 1097454786#1 1097454787 38233265#0 38233265#1 38233265#2 38233265#3 38233265#4 8588113#0 8588113#1 8588113#2 8588113#3 8588113#4 8588113#5 -274149187#6 -274149187#5 -274149187#4 -274149187#3 -274149187#2 -274149187#1 -274149187#0 29145011#0 29145011#1 29145011#2 -1155913699 -8588880"/>
    </vehicle>
    <vehicle id="13" depart="13.00">
        <route edges="-178433387 -1081524782 -559661610#1 -559661610#0 1082669263 -559661613#2 -559661613#1 -559661613#0 -1202330403 -559661614#1 -559661614#0 559405366 498389361#0 498389361#1 498389361#2 -1202330407#1 -1202330407#0 -559405368 -498389367 -559405367 -559405369 -746065785 -417156811#1 -417156811#0 -178433389#1 -178433389#0 -746063398 -559384192 -178433390 -1195656827#3 -1195656827#2 178433423#0 178433423#1 178433423#2 178433423#3 178433423#4 178433423#5 178433423#6 178433423#7 178433423#8 178433423#9 178433423#10 178433423#11 178433423#12 178433423#13 -204809028#2 -204809028#1"/>
    </vehicle>
    <vehicle id="15" depart="15.00">
        <route edges="8063116#1 8063116#2 -8588063#2 -8588063#1 -8588063#0 -1312602511 -1312602510#1 -1312602510#0 8588062#7 8588062#8 8588062#9 8588062#10 8588062#11 8588062#12 4843850#0 4843850#1 4843850#2 4843850#3 4843850#4 4843850#5 4843850#6 4843850#7"/>
    </vehicle>
    <vehicle id="16" depart="16.00">
        <route edges="178939671 -1024278850#2 419164932#2 419164932#3 419164932#4 559758444 559758443#0 559758443#1 -559758443#1 -559758443#0 -559758444 -8064380#4 -8064380#3 -8064380#2 -8064380#1 -8064380#0 -1073033170 -559758441#1 -559758441#0 -559758440 -559758438 1073033167#0 1073033167#1 -559758442 -559758439#1 -559758439#0 386756606 1063918597#0 1063918597#1 1063918598 8064381#0 8064381#1 8064381#2 8064381#3 8064381#4 8064381#5 1019517041 1019517040#0 1019517040#1 1019517040#2 1019517040#3 -386756603#2 -386756603#1 -386756603#0 -1063918587 -356503092 -1063918588 -154771129 -1064816960 386756602#0 386756602#1 386756602#2 1064816971#0 1064816971#1 -187986575#1 -187986575#0 -1072685766 -1072685765 1072681687 187986577#0 187986577#1 1072681686 -140853131#2 -140853131#1 -140853131#0 -1072681692#2 -1072681692#1 -1072681692#0 -1072681689#1 -1072681689#0 -8064341#6 -8064341#5 -8064341#4 -8064341#3 -8064341#2 -4310644#6 -4310644#5 -8588074#7 -8588074#6 -8588074#5 8588074#5"/>
    </vehicle>
    <vehicle id="17" depart="17.00">
        <route edges="-8588880 -1155913700#4 -1155913700#3 -1155913700#2 8588879#0 8588879#1 8588879#2 8588879#3 8588879#4 8588879#5 274149187#0 274149187#1 274149187#2 274149187#3 274149187#4 274149187#5 274149187#6 -8588113#5 -8588113#4 -8588113#3 -8588113#2 -8588113#1 -8588113#0 -38233265#4 -38233265#3 -38233265#2 -38233265#1 -38233265#0 -1097454787 -1097454786#1 -1097454786#0 -1072681688#2 -1072681688#1 -1072681688#0 -38233266 -8588109 140853131#0 140853131#1 140853131#2 1072685763#0 1072685763#1 187986572 1072685764 1072685765 1072685766 187986575#0 187986575#1 1063918595 1063918585#0 1063918585#1 1063918585#2 1064816960 154771129 1063918588 356503092 1063918587 386756603#0 386756603#1 386756603#2 4309985#0 4309985#1 4309985#2 1063918599 235377233#0 235377233#1"/>
    </vehicle>
    <vehicle id="18" depart="18.00">
        <route edges="8064329#0 8064329#1 8064329#2 8064329#3 8064329#4 4388706#6 4388706#7 4388706#8 4388706#9 4388706#10 4388706#11 4388706#12 4388706#13 4388706#14 4388706#15 4388706#16 4388706#17 4310644#0 4310644#1 4310644#2 4310644#3 4310644#4 4310644#5 4310644#6 -8064341#1 -8064341#0 -1191864098 -1191864097#2 -1191864097#1 -1191864097#0 -1221959859 -556299731 -386770310#1 -386770310#0 -556299732 -254644871#1 -254644871#0 -559099465#1 -559099465#0 -559099466#2 -559099466#1 -559099466#0 -559099464 -173170901#2 -173170901#1 -173170901#0 -173170900#1 -173170900#0 -1172592067 -1172592066#2 -1172592066#1 -1172592066#0 -1172592068#1 -1172592068#0 -1172592069 -4309981 38710676#0 38710676#1 38710676#2 38710676#3 38710676#4 38710676#5"/>
    </vehicle>
    <vehicle id="19" depart="19.00">
        <route edges="8064339#1 8064339#2 8064339#3 8064339#4 8064339#5 8064339#6 8064339#7 8064339#8 8064339#9 4400534#8 4400534#9 4400534#10 1195656831 1072681690#0 1072681690#1 1072681691#0 1072681691#1 1072681691#2 8588109 38233266 1072681688#0 1072681688#1 1072681688#2 1097454786#0 1097454786#1 1097454787 38233265#0 38233265#1 38233265#2 38233265#3 38233265#4 8588113#0 8588113#1 8588113#2 8588113#3 8588113#4 8588113#5 -274149187#6 -274149187#5 -274149187#4 -274149187#3 -274149187#2 -274149187#1 -274149187#0 274149187#0 274149187#1 274149187#2 274149187#3 274149187#4 274149187#5 274149187#6"/>
    </vehicle>
    <vehicle id="20" depart="20.00">
        <route edges="4388706#16 4388706#17 4310644#0 4310644#1 4310644#2 4310644#3 4310644#4 4310644#5 4310644#6 8064341#2 8064341#3 8064341#4 8064341#5 8064341#6 1072681689#0 1072681689#1 1072681692#0 1072681692#1 1072681692#2 140853131#0 140853131#1 140853131#2 1072685763#0 1072685763#1 187986572 1072685764 1072685765 1072685766 187986575#0 187986575#1 1063918595 1063918585#0 1063918585#1 1063918585#2 1064816960 154771129 1063918588 356503092 1063918587 386756603#0 386756603#1 386756603#2 8064319#0 8064319#1 8064319#2 8064319#3 1137018591 1137018592 1137018589#0 1137018589#1 -1137018589#1 -1137018589#0"/>
    </vehicle>
    <vehicle id="21" depart="21.00">
        <route edges="-48977235#4 -48977235#3 -48977235#2 -48977235#1 -48977235#0 178433388#1 1114912804 1114912802 746063393 746063396 746063397#0 746063397#1 417156811#0 417156811#1 746065785 559405369 559405367 498389367 559405368 1202330404#0 1202330404#1 1202330404#2 559661614#0 559661614#1 1202330403 559661613#0 559661613#1 559661613#2 1082669264 1222309814#0 1222309814#1 1222309814#2 -1081715898 -1082669266 -1081715899#1 -1081715899#0 -4345090#7 -4345090#6 -1081717008#2 -1081717008#1 -1081717008#0 -1202797468#1 -1202797468#0 -1202797469 -8588027#8 -8588027#7 -8588027#6 -8588027#5 -82282518#2 -82282518#1"/>
    </vehicle>
    <vehicle id="22" depart="22.00">
        <route edges="-1312602510#1 -1312602510#0 -8588062#6 -8588062#5 -8588062#4 -8588062#3 -8588062#2 -8588062#1 -8588062#0 1137018589#2 1137018590 611913548#0 611913548#1 611913548#2 611913548#3 611913548#4 1137018581#0 1137018581#1 -1137018581#1 -1137018581#0 -611913548#4"/>
    </vehicle>
    <vehicle id="23" depart="23.00">
        <route edges="-178433425#6 -178433425#5 -178433425#4 -178433425#3 -178433425#2 -178433425#1 -178433425#0 1195656827#0 1195656827#1 1195656827#2 1195656827#3 178433390 559384192 746063398 746063400#0 746063400#1 746065785 559405369 559405367 498389367 559405368 1202330404#0 1202330404#1 1202330404#2 559661614#0 559661614#1 1202330403 559661613#0 559661613#1 559661613#2 1082669264 1222309814#0 1222309814#1 1222309814#2 -1081715898 -1082669266 -1081715899#1 -1081715899#0 -4345090#7 -4345090#6 -1081717008#2 -1081717008#1 -1081717008#0 -1202797468#1 -1202797468#0 -1202797469 -8588027#8 -8588027#7 -8588027#6 -8588027#5 -82282518#2 -82282518#1 -82282518#0 -82282510#3 -82282510#2 -82282510#1"/>
    </vehicle>
    <vehicle id="24" depart="24.00">
        <route edges="29145014#1 29145014#2 -29145014#2 -29145014#1 -29145014#0 -29145011#1 -29145011#0 274149187#0 274149187#1 274149187#2 274149187#3 274149187#4 274149187#5 274149187#6 -8588113#5 -8588113#4 -8588113#3 -8588113#2 -8588113#1 -8588113#0 -38233265#4 -38233265#3 -38233265#2 -38233265#1 -38233265#0 -1097454787 -1097454786#1 -1097454786#0 -1072681688#2 -1072681688#1 -1072681688#0 -38233266 -8588109 140853131#0 140853131#1 140853131#2 1072685763#0 1072685763#1 187986572 1072685764 1072685765 1072685766 187986575#0 187986575#1 1063918595"/>
    </vehicle>
    <vehicle id="25" depart="25.00">
        <route edges="-8588110 -38233265#4 -38233265#3 -38233265#2 -38233265#1 -38233265#0 -1097454787 -1097454786#1 -1097454786#0 -1072681688#2 -1072681688#1 -1072681688#0 -38233266 -8588109 140853131#0 140853131#1 140853131#2 1072685763#0 1072685763#1 187986572 1072685764 1072685765 1072685766 187986575#0 187986575#1 1063918595 1063918586#0 1063918586#1 1063918586#2 1063918952 1063918596#0 1063918596#1 1019517068 38233263#0 38233263#1 386756604#0 386756604#1 386756604#2 559758439#0 559758439#1 559758442 1073033168#0 1073033168#1 559758438 559758440 559758441#0 559758441#1 1073033170 8064380#0 8064380#1 8064380#2 8064380#3 8064380#4 559758444 82282517#0 82282517#1 82282517#2 -746165249 -559661612#1 -559661612#0 -178433387 -1081524782 -559661610#1 -559661610#0 1082669263 -559661613#2 -559661613#1 -559661613#0"/>
    </vehicle>
    <vehicle id="26" depart="26.00">
        <route edges="-728859185 -728859190 728859190 728859185 281390183 1024278850#0 1024278850#1 419164932#2 419164932#3 419164932#4 559758444 559758443#0 559758443#1 -559758443#1 -559758443#0 -559758444 -8064380#4 -8064380#3 -8064380#2 -8064380#1 -8064380#0 -1073033170 -559758441#1 -559758441#0 -559758440 -559758438 1073033167#0 1073033167#1 -559758442 -559758439#1 -559758439#0 386756606 1063918597#0 1063918597#1 1063918598 8064381#0 8064381#1 8064381#2 8064381#3 8064381#4 8064381#5 1019517041 1019517040#0 1019517040#1 1019517040#2 1019517040#3 8064319#0 8064319#1 8064319#2 8064319#3 1137018591 1137018592 1137018589#0 1137018589#1 8588062#0 8588062#1 8588062#2 8588062#3 8588062#4 8588062#5 8588062#6 8588062#7 8588062#8 8588062#9 8588062#10 8588062#11 8588062#12"/>
    </vehicle>
    <vehicle id="27" depart="27.00">
        <route edges="382141812 382141814 382141817#0 382141817#1 382141817#2 382141817#3 -4310642 -382141798#1 -382141798#0 386770310#0 386770310#1 556299731 1221959859 1191864097#0 1191864097#1 1191864097#2 1191864098 8064341#0 8064341#1 8064341#2 8064341#3 8064341#4 8064341#5 8064341#6 1072681689#0 1072681689#1 1072681692#0 1072681692#1 1072681692#2 8588109 38233266 1072681688#0 1072681688#1 1072681688#2 1097454786#0 1097454786#1 1097454787 38233265#0"/>
    </vehicle>
    <vehicle id="29" depart="29.00">
        <route edges="-4309981 -498389377#1 -498389377#0 -1172592065 -1172592063 -559099455 -1172592059 -559025252 -1172592064#1 -1172592064#0 -498389378#1 -498389378#0 -746063399#1 -746063399#0 417156811#0 417156811#1 746065785 559405369 559405367 498389367 559405368 1202330404#0 1202330404#1 1202330404#2 559661614#0 559661614#1 1202330403 559661613#0 559661613#1 559661613#2 1082669265 559661610#0 559661610#1 1081524782 178433387 559661612#0 559661612#1 746165249 559661611#0 559661611#1 -559758443#1 -559758443#0 -559758444 -8064380#4 -8064380#3 -8064380#2 -8064380#1 -8064380#0 -1073033170 1073033170"/>
    </vehicle>
    <vehicle id="31" depart="31.00">
        <route edges="187986577#0 187986577#1 1072681686 -140853131#2 -140853131#1 -140853131#0 1195656829#0 1195656829#1 1195656829#2 1195656829#3 1195656830 4400535#0 4400535#1 4400535#2 4400535#3 -8064337 4400534#8"/>
    </vehicle>
    <vehicle id="32" depart="32.00">
        <route edges="8064333#1 8064333#2 1106864434#0 1106864434#1 1106864434#2 8064335 4400534#4 4400534#5 4400534#6 4400534#7 4400534#8 4400534#9 4400534#10 1195656831 1072681690#0 1072681690#1 1072681691#0 1072681691#1 1072681691#2 140853131#0 140853131#1 140853131#2 1072685763#0 1072685763#1 187986572 1072685764 1072685765 1072685766 187986575#0 187986575#1 1063918595 1063918586#0 1063918586#1 1063918586#2 1063918952 1063918596#0 1063918596#1 1019517068 38233263#0 38233263#1 386756604#0 386756604#1 386756604#2 559758439#0 559758439#1 559758442 1073033168#0 1073033168#1 559758438 559758440 559758441#0 559758441#1 1073033170 8064380#0 8064380#1 8064380#2 8064380#3 8064380#4 559758444 559758443#0 559758443#1 560072171#0 560072171#1 560072170"/>
    </vehicle>
    <vehicle id="33" depart="33.00">
        <route edges="-48977235#4 -48977235#3 -48977235#2 -48977235#1 -48977235#0 178433388#1 1114912804 1114912802 746063393 746063396 746063397#0 746063397#1 746063399#0 746063399#1 498389378#0 498389378#1 1172592064#0 1172592064#1 559025252 1172592059 559099455 1172592063 1172592065 498389377#0 498389377#1 4309981 1172592069 1172592068#0 1172592068#1 1172592066#0 1172592066#1 1172592066#2 1172592067 173170900#0 173170900#1 173170901#0 173170901#1 173170901#2 559099464 559099466#0 559099466#1 559099466#2 559099465#0 559099465#1 254644871#0 254644871#1 181469580#0 181469580#1 556299731 1221959859 1191864097#0 1191864097#1 1191864097#2 1191864098 8064341#0 8064341#1 8064341#2 8064341#3 8064341#4 8064341#5 8064341#6 1072681689#0 1072681689#1 1072681692#0 1072681692#1 1072681692#2 1195656829#0 1195656829#1 1195656829#2 1195656829#3 1195656830 4400535#0 4400535#1 4400535#2 4400535#3 4400535#4 4400535#5 4400535#6 4400535#7 4400535#8 -1106864434#2 -1106864434#1 -1106864434#0"/>
    </vehicle>
    <vehicle id="34" depart="34.00">
        <route edges="-82282510#4 -82282510#3 -82282510#2 -82282510#1 -82282510#0 -8588027#1 -8588027#0 -1081717009 -1081715916 -560014269 -560014271 -560014273 -560014277#1 -560014277#0 -559758443#1 -559758443#0 -559758444 -8064380#4 -8064380#3 -8064380#2 -8064380#1 -8064380#0 -1073033170 -559758441#1 -559758441#0 -559758440 -559758438 1073033167#0 1073033167#1 -559758442 -559758439#1 -559758439#0 386756606 1063918597#0 1063918597#1 1063918598 8064381#0 8064381#1 8064381#2 8064381#3 8064381#4 8064381#5 1019517041 1019517040#0 1019517040#1 1019517040#2 1019517040#3 -386756603#2 -386756603#1 -386756603#0 -1063918587 -356503092 -1063918588 -154771129 -1064816960 386756602#0 386756602#1 386756602#2 1064816971#0 1064816971#1 -187986575#1 -187986575#0 -1072685766 -1072685765 1072681687 187986577#0 187986577#1 1072681686 -140853131#2 -140853131#1 -140853131#0 -1072681692#2 -1072681692#1 -1072681692#0 -1072681689#1 -1072681689#0 -8064341#6 -8064341#5 -8064341#4 -8064341#3 -8064341#2"/>
    </vehicle>
    <vehicle id="35" depart="35.00">
        <route edges="-46835606#1 -46835606#0 840427777#4 840427777#5 1188277978#0 1188277978#1 1188277978#2 8662633 166999517 8662630#0 8662630#1 8662630#2 190360149#0 190360149#1 190360149#2 498389374#0 498389374#1 4309981 1172592069 1172592068#0 1172592068#1 1172592066#0 1172592066#1 1172592066#2 1172592067 173170900#0 173170900#1 173170901#0 173170901#1 173170901#2 559099464 559099466#0 559099466#1 559099466#2 559099465#0 559099465#1 254644871#0 254644871#1 181469580#0 181469580#1 556299731 1221959859 1191864097#0 1191864097#1 1191864097#2 1191864098 8064341#0 8064341#1 8064341#2 8064341#3 8064341#4 8064341#5 8064341#6 1072681689#0 1072681689#1 1072681692#0 1072681692#1 1072681692#2 1195656829#0 1195656829#1 1195656829#2 1195656829#3 1195656830 4400535#0 4400535#1 4400535#2 4400535#3 8064338#0 8064338#1 8064338#2 8064338#3 8064338#4 8064338#5 8064338#6 8064338#7 1168599638#0 1168599638#1 1168599638#2 36959191#3 36959191#4 36959191#5 36959191#6 36959191#7 8588063#1"/>
    </vehicle>
    <vehicle id="36" depart="36.00">
        <route edges="8064380#3 8064380#4 -8064380#4 -8064380#3 -8064380#2 -8064380#1 -8064380#0 -1073033170 -559758441#1 -559758441#0 -559758440 -559758438 1073033167#0 1073033167#1 -559758442 -559758439#1 -559758439#0 386756606 1063918597#0 1063918597#1 1063918598 8064381#0 8064381#1 8064381#2 8064381#3 8064381#4 8064381#5 1019517041 1019517040#0 1019517040#1 1019517040#2 1019517040#3 8064319#0 8064319#1 8064319#2 8064319#3 1137018591 1137018592 1137018589#0 1137018589#1 8588062#0 8588062#1 8588062#2 8588062#3 8588062#4 8588062#5 8588062#6 -8588062#6 -8588062#5 -8588062#4 -8588062#3 -8588062#2"/>
    </vehicle>
    <vehicle id="37" depart="37.00">
        <route edges="386756603#0 386756603#1 386756603#2 -386756603#2 -386756603#1 -386756603#0 -1063918587 -356503092 -1063918588 -154771129 -1064816960 386756602#0 386756602#1 386756602#2 1064816971#0 1064816971#1 -187986575#1 -187986575#0 -1072685766 -1072685765 1072681687 187986577#0 187986577#1 1072681686 -140853131#2 -140853131#1 -140853131#0 1195656829#0 1195656829#1 1195656829#2 1195656829#3 1195656830 4400535#0 4400535#1 4400535#2 4400535#3 4400535#4 4400535#5 4400535#6 4400535#7 4400535#8 4400535#9 4400535#10 -8064330 -1085565486#2 -1085565486#1 -1085565486#0 8064329#0 8064329#1 8064329#2 8064329#3 8064329#4 4388706#6 4388706#7 4388706#8 4388706#9 4388706#10 4388706#11 1085565491#0 1085565491#1"/>
    </vehicle>
    <vehicle id="38" depart="38.00">
        <route edges="85643946#8 85643946#9 4310644#0 4310644#1 4310644#2 4310644#3 4310644#4 4310644#5 4310644#6 -8064341#1 -8064341#0 -1191864098 -1191864097#2 -1191864097#1 -1191864097#0 -1221959859 -556299731 -386770310#1 -386770310#0 -556299732 -254644871#1 -254644871#0 -559099465#1 -559099465#0 -559099466#2 -559099466#1 -559099466#0 -559099464 -173170901#2 -173170901#1 -173170901#0 -173170900#1 -173170900#0 -1172592067 -1172592066#2 -1172592066#1 -1172592066#0 -1172592068#1 -1172592068#0 -1172592069 -4309981 -498389377#1 -498389377#0 -1172592065 -1172592063 -559099455 -1172592059 -559025252 -1172592064#1 -1172592064#0 -498389378#1 -498389378#0 -746063399#1 -746063399#0 417156811#0 417156811#1 746065785 559405369 559405367 498389367 559405368 1202330404#0 1202330404#1 1202330404#2 559661614#0 559661614#1 1202330403 559661613#0 559661613#1 559661613#2 1082669264 1222309814#0 1222309814#1 1222309814#2 -1081715898 -1082669266 -1081715899#1 -1081715899#0 -4345090#7 -4345090#6 -1081717008#2 -1081717008#1 -1081717008#0 -1202797468#1 -1202797468#0 -1202797469 -8588027#8 -8588027#7 8588027#7 8588027#8 1202797469"/>
    </vehicle>
    <vehicle id="39" depart="39.00">
        <route edges="-611913548#4 1312602508 1312602509#0 1312602509#1 8588060#0 8588060#1 8588060#2 -8588063#6 -8588063#5 8064332#0 8064332#1 8064332#2 1106864438#3 1106864438#4 1106864438#5 8064333#0 8064333#1 8064333#2 1106864434#0 1106864434#1 1106864434#2 4400535#9 4400535#10 -8064330 -1085565486#2 -1085565486#1 -1085565486#0 8064329#0 8064329#1 8064331#4 8064331#5 8064331#6 8064331#7 8064331#8 8064331#9 -8064321#2 -8064321#1 -8064321#0"/>
    </vehicle>
    <vehicle id="40" depart="40.00">
        <route edges="190360149#0 190360149#1 190360149#2 498389374#0 498389374#1 4309981 1172592069 1172592068#0 1172592068#1 1172592066#0 1172592066#1 1172592066#2 1172592067 173170900#0 173170900#1 173170901#0 173170901#1 173170901#2 559099464 559099466#0 559099466#1 559099466#2 559099465#0 559099465#1 254644871#0 254644871#1 181469580#0 181469580#1 556299731 1221959859 1191864097#0 1191864097#1 1191864097#2 1191864098 8064341#0 8064341#1 8064341#2 8064341#3 8064341#4 8064341#5 8064341#6 1072681689#0 1072681689#1 1072681692#0 1072681692#1 1072681692#2 1195656829#0 1195656829#1 1195656829#2 1195656829#3 1195656830 4400535#0 4400535#1 4400535#2 4400535#3 -8064337 -8064339#9 -8064339#8 -8064339#7"/>
    </vehicle>
    <vehicle id="41" depart="41.00">
        <route edges="232558841#0 232558841#1 232558841#2 -235377233#0 -1063918599 -4309985#2 -4309985#1 -4309985#0 -386756603#2 -386756603#1 -386756603#0 -1063918587 -356503092 -1063918588 -154771129 -1064816960 4337566#0 4337566#1 4337566#2 1063918952 1063918596#0 1063918596#1 1019517068 38233263#0 38233263#1 386756604#0 386756604#1 386756604#2 559758439#0 559758439#1 559758442 1073033168#0 1073033168#1 559758438 559758440 559758441#0 559758441#1 1073033170 8064380#0 8064380#1 8064380#2 8064380#3 8064380#4 559758444 82282517#0 82282517#1 82282517#2 -746165249 -559661612#1 -559661612#0 -178433387 -1081524782 -559661610#1 -559661610#0 1082669263 -559661613#2 -559661613#1 -559661613#0 -1202330403 -559661614#1 -559661614#0 559405366 253865826#0 253865826#1 253865826#2 1202330413 253866056 1202330423 416955083 1202330420 1202330421 8064382#0 8064382#1 8064382#2 416709257 1202585795#3 416709266 415840858 1202585798#0 1202585798#1 1202585798#2 1202585798#3 1202585798#4 566767153 566767150#0 82283229#0 82283229#1 82283229#2 82283229#3 82283229#4"/>
    </vehicle>
    <vehicle id="42" depart="42.00">
        <route edges="1047231398#1 1047231400#2 232558841#0 232558841#1 232558841#2 -235377233#0 -1063918599 -4309985#2 -4309985#1 -4309985#0 -386756603#2 -386756603#1 -386756603#0 -1063918587 -356503092 -1063918588 -154771129 -1064816960 4337566#0 4337566#1 4337566#2 1063918952 1063918596#0 1063918596#1 1019517068 38233263#0 38233263#1 386756604#0 386756604#1 386756604#2 559758439#0 559758439#1 559758442 1073033168#0 1073033168#1 1073033167#0 1073033167#1 -559758442"/>
    </vehicle>
    <vehicle id="43" depart="43.00">
        <route edges="8662634#3 8662634#4 8662632#0 8662632#1 8662632#2 8662632#3 8662632#4 8662632#5 8662633 166999517 25520006#0 25520006#1 25520006#2 25520006#3 25520006#4 416709245#0 416709245#1 416709245#2 416709245#3 1202585795#1 1202585795#2 1202585795#3 416709266 415840858 1202585798#0 1202585798#1 1202585798#2 1202585798#3 1202585798#4 566767153 566767150#0 566767150#1 572481376#0 572481376#1 572481376#2 223184704#0 223184704#1 223184704#2 223184704#3 223184704#4 223184704#5 223184704#6 8064384#0 8064384#1 1313412309#0 1313412309#1 1313412309#2 1313412309#3 1313412309#4 178939751#0 178939751#1 178939751#2 178939751#3 178939751#4"/>
    </vehicle>
    <vehicle id="44" depart="44.00">