<?xml version="1.0" encoding="UTF-8"?>

<!-- generated on 2024-12-06 12:04:28 by Eclipse SUMO polyconvert Version 1.21.0
<polyconvertConfiguration xmlns:xsi="http://www.w3.org/2001/XMLSchema-instance" xsi:noNamespaceSchemaLocation="http://sumo.dlr.de/xsd/polyconvertConfiguration.xsd">

    <input>
        <net-file value="test.net.xml"/>
        <osm-files value="map.osm"/>
        <type-file value="typemap.xml"/>
    </input>

    <output>
        <output-file value="map.poly.xml"/>
    </output>

    <report>
        <xml-validation value="never"/>
    </report>

</polyconvertConfiguration>
-->

<additional xmlns:xsi="http://www.w3.org/2001/XMLSchema-instance" xsi:noNamespaceSchemaLocation="http://sumo.dlr.de/xsd/additional_file.xsd">
    <location netOffset="-690302.51,-5360290.74" convBoundary="-2078.72,-1969.20,3743.64,3647.26" origBoundary="17.541716,48.349295,17.620491,48.399423" projParameter="+proj=utm +zone=33 +ellps=WGS84 +datum=WGS84 +units=m +no_defs"/>

    <poly id="1019395308" type="building" color="255,230,230" fill="1" layer="-1.00" shape="1278.932592,787.736236 1286.666899,791.613635 1294.997665,774.759956 1300.618277,761.987242 1292.317221,758.647016 1286.346590,772.565088 1278.932592,787.736236"/>
    <poly id="1019395308#1" type="historic" color="128,255,128" fill="1" layer="-1.00" shape="1278.932592,787.736236 1286.666899,791.613635 1294.997665,774.759956 1300.618277,761.987242 1292.317221,758.647016 1286.346590,772.565088 1278.932592,787.736236"/>
    <poly id="1019445111" type="parking" color="184,184,179" fill="1" layer="-1.00" shape="1896.684308,829.675247 1898.012032,824.401655 1899.099288,820.099067 1901.268838,820.172582 1914.159597,823.691510 1924.365271,824.193138 2025.781039,853.578546 2032.392131,859.521869 2031.725971,863.427025 2030.572403,870.119598 1896.684308,829.675247"/>
    <poly id="1019517025" type="parking" color="184,184,179" fill="1" layer="-1.00" shape="1011.332701,813.330419 1009.157412,808.372458 1065.481961,695.857196 1066.475128,698.060397 1067.150924,699.563039 1067.564462,700.489375 1011.332701,813.330419"/>
    <poly id="1022967175" type="amenity" color="237,199,199" fill="1" layer="-1.00" shape="624.563892,1664.011968 628.242605,1666.361151 634.819606,1657.035970 631.140889,1654.686784 624.563892,1664.011968"/>
    <poly id="1023697576" type="building" color="255,230,230" fill="1" layer="-1.00" shape="310.558210,795.601548 317.440085,798.169391 313.367294,809.070064 306.406969,806.410577 310.558210,795.601548"/>
    <poly id="1023697576#1" type="shop" color="237,199,255" fill="1" layer="-1.00" shape="310.558210,795.601548 317.440085,798.169391 313.367294,809.070064 306.406969,806.410577 310.558210,795.601548"/>
    <poly id="1023922466" type="unknown" color="51,128,255" fill="0" layer="-1.00" shape="1230.444259,1248.478471 1234.077301,1239.232508"/>
    <poly id="1023922468" type="parking" color="184,184,179" fill="1" layer="-1.00" shape="1273.639408,1263.979267 1274.910230,1261.029119 1313.557375,1279.280667 1312.309874,1282.198216 1273.639408,1263.979267"/>
    <poly id="1023966482" type="parking" color="184,184,179" fill="1" layer="-1.00" shape="1359.636863,1086.142989 1353.031798,1086.153452 1337.914170,1125.954590 1329.718283,1149.355239 1329.712942,1154.339811 1331.170645,1153.977377 1331.982665,1149.031188 1340.148037,1126.753305 1359.636863,1086.142989"/>
    <poly id="1023966495" type="parking" color="184,184,179" fill="1" layer="-1.00" shape="1468.549640,1092.561645 1467.608299,1094.532622 1497.733501,1108.780931 1498.588142,1106.962800 1468.549640,1092.561645"/>
    <poly id="1023966496" type="parking" color="184,184,179" fill="1" layer="-1.00" shape="1449.281433,1090.007520 1447.669143,1089.240903 1424.897977,1133.078003 1426.696753,1134.028945 1449.281433,1090.007520"/>
    <poly id="1028697388" type="parking" color="184,184,179" fill="1" layer="-1.00" shape="550.068129,1694.160819 551.063802,1692.325061 515.149897,1667.105244 513.543334,1669.254249 516.868963,1671.524716 550.068129,1694.160819"/>
    <poly id="1028697393" type="parking" color="184,184,179" fill="1" layer="-1.00" shape="454.824913,1628.769577 456.205993,1626.713110 379.882512,1574.132201 352.971287,1554.245437 351.425622,1555.906964 376.763459,1574.973083 454.824913,1628.769577"/>
    <poly id="1028943811" type="parking" color="184,184,179" fill="1" layer="-1.00" shape="1439.006039,1570.188808 1438.546376,1569.972986 1437.422378,1569.456533 1397.462888,1672.318246 1399.068358,1673.062375 1399.630160,1673.326155 1439.006039,1570.188808"/>
    <poly id="1028943816" type="parking" color="184,184,179" fill="1" layer="-1.00" shape="1036.295662,1591.902805 1037.060415,1589.447365 1090.620097,1608.757019 1121.566641,1620.349651 1133.746176,1624.911047 1132.992265,1627.044169 1120.737198,1622.524732 1089.674735,1611.072838 1036.295662,1591.902805"/>
    <poly id="1028943818" type="parking" color="184,184,179" fill="1" layer="-1.00" shape="1022.828144,1596.733575 1026.829617,1598.081386 1018.885537,1624.617472 1015.434002,1623.666525 1022.828144,1596.733575"/>
    <poly id="1028943819" type="parking" color="184,184,179" fill="1" layer="-1.00" shape="1012.348648,1594.944682 1014.709723,1595.703064 1009.503559,1615.343993 1007.368251,1614.704496 1012.348648,1594.944682"/>
    <poly id="1028943820" type="parking" color="184,184,179" fill="1" layer="-1.00" shape="1171.139417,1509.666140 1175.316470,1513.278696 1174.837703,1536.239105 1172.551071,1555.666951 1169.405067,1569.813993 1162.357015,1591.962886 1149.745577,1625.440058 1147.367959,1621.220666 1163.072568,1577.355474 1167.681305,1557.204908 1170.648284,1532.993311 1171.139417,1509.666140"/>
    <poly id="103324020" type="parking" color="184,184,179" fill="1" layer="-1.00" shape="1865.253201,723.318009 1933.891104,740.853981 1940.006323,718.562954 1916.083288,712.233369 1914.932382,715.788305 1888.107410,708.025296 1885.136479,706.222246 1883.633197,703.767939 1883.543721,700.938716 1885.182206,694.151287 1889.961793,695.303505 1893.520421,680.636645 1888.973509,679.180759 1878.233303,677.381527 1873.375885,676.337949 1865.253201,723.318009"/>
    <poly id="1041686947" type="landuse" color="194,194,130" fill="1" layer="-3.00" shape="928.109305,1620.064598 929.046451,1618.649737 930.655928,1619.716538 929.719157,1621.120284 928.109305,1620.064598"/>
    <poly id="1041686948" type="landuse" color="194,194,130" fill="1" layer="-3.00" shape="914.395359,1610.667457 915.324724,1609.263459 916.934582,1610.319141 916.004841,1611.734253 914.395359,1610.667457"/>
    <poly id="1041686949" type="landuse" color="194,194,130" fill="1" layer="-3.00" shape="899.596975,1600.677456 900.526713,1599.262341 902.136576,1600.318019 901.206838,1601.733134 899.596975,1600.677456"/>
    <poly id="1041686950" type="landuse" color="194,194,130" fill="1" layer="-3.00" shape="884.536884,1590.534028 885.474023,1589.119160 887.083516,1590.185947 886.146752,1591.589701 884.536884,1590.534028"/>
    <poly id="1041686951" type="landuse" color="194,194,130" fill="1" layer="-3.00" shape="869.806528,1580.501898 870.743664,1579.087028 872.353164,1580.153811 871.416401,1581.557567 869.806528,1580.501898"/>
    <poly id="1041686952" type="landuse" color="194,194,130" fill="1" layer="-3.00" shape="855.590536,1570.820947 856.527671,1569.406075 858.137175,1570.472853 857.207819,1571.876861 855.590536,1570.820947"/>
    <poly id="1041686953" type="landuse" color="194,194,130" fill="1" layer="-3.00" shape="878.234537,1570.371493 877.934556,1570.695179 877.542076,1570.904480 877.095237,1570.967303 876.661048,1570.874778 876.283555,1570.639520 876.013834,1570.285501 875.872596,1569.857927 875.878681,1569.457573 876.009878,1569.083691 876.257659,1568.769372 876.584256,1568.535596 876.965961,1568.426071 877.373533,1568.428685 877.746995,1568.563668 878.072663,1568.797180 878.298712,1569.127474 878.419237,1569.509842 878.396846,1569.954153 878.234537,1570.371493"/>
    <poly id="1041686957" type="landuse" color="194,194,130" fill="1" layer="-3.00" shape="843.667573,1557.979475 848.788697,1548.761216 850.729906,1547.024135 853.388555,1547.091499 877.120106,1561.655147 869.114514,1574.425679 843.667573,1557.979475"/>
    <poly id="1041686958" type="landuse" color="194,194,130" fill="1" layer="-3.00" shape="876.414612,1578.844269 880.044621,1573.403329 880.915441,1573.955639 881.949695,1574.057267 882.673554,1573.692239 883.078774,1573.105062 883.163947,1572.117663 882.661613,1571.188343 881.800070,1570.580712 884.471111,1566.542780 948.742333,1607.152540 951.298910,1611.344495 951.706771,1615.074550 948.617542,1619.643554 944.177962,1621.396484 939.428831,1620.679989 876.414612,1578.844269"/>
    <poly id="1043461186" type="parking" color="184,184,179" fill="1" layer="-1.00" shape="1398.800579,605.058138 1399.415877,602.864722 1422.685249,608.379984 1422.119039,610.875476 1398.800579,605.058138"/>
    <poly id="1044310084" type="landuse" color="194,194,130" fill="1" layer="-3.00" shape="544.159309,1849.022268 536.021290,1849.905540 528.895772,1852.636534 522.043266,1856.945574 515.775623,1861.274305 503.146384,1877.350064 491.440606,1890.653018 467.190769,1924.997149 468.314993,1925.947354 544.159309,1849.022268"/>
    <poly id="1049390851" type="landuse" color="194,194,130" fill="1" layer="-3.00" shape="1691.723504,1397.818619 1693.925844,1398.449515 1699.443764,1379.965674 1699.798449,1375.838539 1697.981404,1378.058001 1696.286632,1382.796244 1691.723504,1397.818619"/>
    <poly id="1049390852" type="landuse" color="194,194,130" fill="1" layer="-3.00" shape="1703.349391,1359.624720 1702.768934,1362.976467 1702.673782,1368.414216 1704.604115,1364.162399 1705.444727,1361.665092 1705.105133,1360.529794 1704.561627,1359.943930 1703.349391,1359.624720"/>
    <poly id="1049390853" type="landuse" color="194,194,130" fill="1" layer="-3.00" shape="1696.730408,1399.245447 1698.088830,1399.625239 1708.374698,1364.011890 1707.347560,1363.698946 1705.587902,1368.601891 1702.818918,1372.447006 1702.762777,1376.951431 1701.725330,1382.635446 1696.730408,1399.245447"/>
    <poly id="1049390854" type="landuse" color="194,194,130" fill="1" layer="-3.00" shape="1714.523483,1334.778745 1714.558338,1340.754979 1709.730531,1358.995133 1708.616051,1358.634724 1714.523483,1334.778745"/>
    <poly id="1049390855" type="landuse" color="194,194,130" fill="1" layer="-3.00" shape="1704.653416,1355.919162 1706.824021,1356.393213 1712.434313,1334.307448 1711.887799,1326.366713 1714.151496,1317.085777 1713.617351,1313.596152 1715.357021,1305.343386 1718.286561,1302.449484 1719.110079,1297.392451 1716.298014,1301.414130 1714.977273,1304.518278 1711.638336,1319.504202 1710.726940,1329.565288 1709.372672,1338.476454 1704.653416,1355.919162"/>
    <poly id="1049390856" type="landuse" color="194,194,130" fill="1" layer="-3.00" shape="1720.894132,1302.059322 1721.463873,1294.645957 1725.025995,1289.926439 1726.436468,1286.580544 1727.855438,1280.575648 1749.933864,1188.081242 1762.554086,1135.868039 1765.365551,1124.424827 1769.048848,1113.723251 1743.212739,1221.512013 1726.101013,1294.079729 1720.894132,1302.059322"/>
    <poly id="1049390857" type="landuse" color="194,194,130" fill="1" layer="-3.00" shape="1763.195461,1121.525149 1761.281608,1127.913842 1751.741110,1168.203339 1749.631050,1177.979044 1750.613921,1167.998268 1760.105108,1129.164703 1763.195461,1121.525149"/>
    <poly id="1049390858" type="landuse" color="194,194,130" fill="1" layer="-3.00" shape="1744.604775,1197.258369 1742.640121,1202.521547 1738.137551,1220.783824 1722.758047,1285.321070 1721.978177,1289.088879 1723.534978,1286.237514 1724.171438,1284.078225 1744.604775,1197.258369"/>
    <poly id="1049390859" type="tourism" color="207,245,201" fill="1" layer="-2.00" shape="1535.842368,1737.872189 1543.129292,1740.688986 1547.646629,1731.384107 1543.818821,1734.548112 1539.303345,1736.787591 1535.842368,1737.872189"/>
    <poly id="1049390860" type="tourism" color="207,245,201" fill="1" layer="-2.00" shape="1545.285209,1741.373895 1552.093161,1744.107739 1553.346589,1744.083387 1554.690597,1743.572524 1555.760421,1742.840977 1556.431566,1741.406084 1561.614267,1729.742608 1561.729007,1727.665794 1561.999328,1707.847125 1561.626617,1707.033391 1560.923408,1706.787063 1560.382840,1706.991308 1545.285209,1741.373895"/>
    <poly id="1049390861" type="landuse" color="194,194,130" fill="1" layer="-3.00" shape="1563.737893,1729.191365 1563.707170,1705.345764 1565.025568,1697.267867 1566.141585,1693.199868 1578.469644,1658.311920 1582.479944,1646.909210 1588.731819,1633.223488 1600.562782,1609.089422 1614.869870,1579.687220 1620.100654,1569.238226 1626.445266,1558.949326 1638.431515,1540.528589 1645.516523,1528.951814 1647.340227,1524.562852 1657.530322,1497.458139 1689.736886,1404.171486 1692.329370,1404.882349 1681.565539,1440.167991 1673.435307,1464.004382 1665.730866,1485.774497 1655.093004,1513.843193 1644.880444,1539.422787 1628.124239,1581.393121 1612.669741,1617.977705 1585.776269,1681.357814 1570.130057,1715.298968 1563.737893,1729.191365"/>
    <poly id="1049390862" type="landuse" color="194,194,130" fill="1" layer="-3.00" shape="1559.382819,1746.624229 1560.397670,1745.545895 1567.255921,1730.144904 1575.000692,1713.516598 1586.130645,1689.503440 1606.320752,1642.853602 1623.850883,1600.564484 1644.909036,1548.870345 1671.036610,1481.436651 1680.825932,1453.695308 1684.576904,1441.861058 1696.133326,1405.934651 1695.134683,1405.656053 1686.657959,1433.375055 1680.825638,1451.514459 1674.808241,1468.991126 1666.957848,1490.255596 1649.522308,1535.207101 1641.440788,1555.640397 1627.809977,1588.926404 1612.960926,1624.485566 1596.227540,1664.042246 1571.239602,1719.965227 1564.040539,1735.799751 1559.382819,1746.624229"/>
    <poly id="1049682502" type="landuse" color="194,194,130" fill="1" layer="-3.00" shape="902.498185,1665.432185 928.260992,1643.480172 934.751725,1647.938310 936.262602,1648.412075 935.394347,1651.520508 933.521278,1654.094356 931.086009,1655.536581 902.498185,1665.432185"/>
    <poly id="1049682503" type="landuse" color="194,194,130" fill="1" layer="-3.00" shape="957.536685,1661.101834 957.086196,1659.295250 966.883061,1656.487969 970.317154,1655.758175 973.463634,1655.864307 975.576812,1656.280512 957.536685,1661.101834"/>
    <poly id="1064816955" type="parking" color="184,184,179" fill="1" layer="-1.00" shape="808.740818,1569.675827 812.199796,1563.149801 816.938457,1566.157918 826.458533,1569.805634 819.681215,1593.199052 807.324375,1588.832652 813.144703,1572.060695 808.740818,1569.675827"/>
    <poly id="1064816956" type="parking" color="184,184,179" fill="1" layer="-1.00" shape="792.846304,1558.992711 797.919865,1550.963357 811.452196,1558.940994 806.903441,1567.232808 792.846304,1558.992711"/>
    <poly id="1064816959" type="leisure" color="207,245,201" fill="1" layer="-2.00" shape="673.393767,1578.601618 682.801570,1560.715312 697.128618,1568.207609 687.720779,1586.093892 673.393767,1578.601618"/>
    <poly id="1064816961" type="water" color="181,209,209" fill="0" layer="-4.00" shape="721.942811,1696.298572 789.242624,1639.539318 804.784844,1621.081051 807.980324,1613.355595"/>
    <poly id="1064816968" type="building" color="255,230,230" fill="1" layer="-1.00" shape="763.188047,1558.416185 760.635925,1562.447049 754.699807,1559.120471 749.978319,1567.261861 768.020465,1577.561023 772.813762,1569.488826 766.744105,1565.946330 769.147409,1561.932708 763.188047,1558.416185"/>
    <poly id="1064816969" type="amenity" color="237,199,199" fill="1" layer="-1.00" shape="764.705625,1538.673055 768.750000,1531.710536 769.469105,1532.146450 778.825236,1537.802477 774.653665,1544.360144 765.469151,1539.110465 764.705625,1538.673055"/>
    <poly id="1064816969#1" type="building" color="255,230,230" fill="1" layer="-1.00" shape="764.705625,1538.673055 768.750000,1531.710536 769.469105,1532.146450 778.825236,1537.802477 774.653665,1544.360144 765.469151,1539.110465 764.705625,1538.673055"/>
    <poly id="1064821367" type="building" color="255,230,230" fill="1" layer="-1.00" shape="556.947027,1446.825525 555.530866,1449.481627 561.148176,1452.596974 560.363962,1454.094924 558.696098,1454.539488 557.077044,1457.277774 557.746283,1458.535350 555.683448,1462.126575 558.054046,1463.485916 557.230119,1465.282949 562.071674,1467.882619 568.523673,1456.327831 565.666750,1454.662826 566.313958,1453.271531 565.623695,1452.858868 565.993147,1451.792023 556.947027,1446.825525"/>
    <poly id="1064821368" type="building" color="255,230,230" fill="1" layer="-1.00" shape="627.989895,1398.902413 631.936463,1393.961552 636.831937,1398.042937 632.947964,1402.885763 627.989895,1398.902413"/>
    <poly id="1064821369" type="building" color="255,230,230" fill="1" layer="-1.00" shape="638.072271,1359.442002 650.321288,1369.890617 657.019596,1361.815709 652.374630,1357.998654 653.388320,1356.730973 653.469952,1355.187123 653.287048,1354.235203 660.126879,1345.920278 653.597843,1340.381918 647.074672,1348.318082 638.072271,1359.442002"/>
    <poly id="1067633743" type="landuse" color="194,194,130" fill="1" layer="-3.00" shape="939.428831,1620.679989 943.907412,1623.045229 948.590844,1623.292193 948.487192,1622.409693 948.754092,1621.528562 949.304106,1620.823880 950.060483,1620.593477 950.941878,1620.612076 951.747177,1621.128808 954.564632,1616.706413 951.706771,1615.074550 948.617542,1619.643554 944.177962,1621.396484 939.428831,1620.679989"/>
    <poly id="1067633748" type="landuse" color="194,194,130" fill="1" layer="-3.00" shape="975.451675,1623.953375 988.800575,1631.424573 983.193667,1634.384280 976.988771,1635.955244 971.710537,1636.422552 967.348090,1636.108508 975.451675,1623.953375"/>
    <poly id="1072661903" type="landuse" color="194,194,130" fill="1" layer="-3.00" shape="926.228773,1143.647562 925.150454,1141.552777 925.046305,1140.024917 925.847439,1139.128418 926.686732,1139.078830 927.349462,1139.868913 927.974125,1139.589555 928.889617,1139.698309 929.478680,1140.474782 929.123861,1141.764635 927.792160,1142.787890 926.228773,1143.647562"/>
    <poly id="1072661904" type="landuse" color="194,194,130" fill="1" layer="-3.00" shape="998.914616,1127.439384 1007.706935,1132.464774 1010.231756,1132.549940 1012.266965,1131.327900 1013.387526,1129.752335 1015.465571,1122.645748 1015.300150,1120.737512 1014.359725,1119.170313 1012.456943,1118.883595 1010.689874,1118.968636 1005.394385,1121.471534 999.592041,1123.178477 998.252450,1124.435110 998.117024,1126.032779 998.914616,1127.439384"/>
    <poly id="1072670591" type="landuse" color="194,194,130" fill="1" layer="-3.00" shape="1179.819009,1213.733939 1169.003544,1210.019669 1170.548972,1205.521038 1181.371849,1209.235561 1179.819009,1213.733939"/>
    <poly id="1072670603" type="landuse" color="194,194,130" fill="1" layer="-3.00" shape="1182.707319,1104.033542 1187.300978,1105.635099 1191.403091,1093.912574 1186.809422,1092.311014 1182.707319,1104.033542"/>
    <poly id="1072670604" type="amenity" color="237,199,199" fill="1" layer="-1.00" shape="1189.940828,1083.871461 1194.241711,1085.362998 1196.307687,1079.279708 1191.998270,1077.821262 1189.940828,1083.871461"/>
    <poly id="1072670605" type="amenity" color="237,199,199" fill="1" layer="-1.00" shape="1191.230438,1085.194568 1190.729476,1085.322301 1190.297303,1085.608129 1189.979471,1086.020212 1189.822280,1086.504478 1189.834260,1087.027835 1190.018040,1087.512487 1190.352905,1087.913226 1190.774471,1088.161119 1191.259773,1088.277644 1191.758108,1088.227710 1192.209866,1088.020429 1192.576902,1087.687895 1192.814039,1087.250835 1192.904592,1086.764319 1192.832252,1086.272303 1192.595893,1085.808130 1192.222505,1085.450597 1191.747984,1085.234295 1191.230438,1085.194568"/>
    <poly id="1072670606" type="landuse" color="194,194,130" fill="1" layer="-3.00" shape="1202.815246,1059.983263 1199.284939,1058.940551 1202.909026,1046.667813 1206.447121,1047.699663 1202.815246,1059.983263"/>
    <poly id="1072670607" type="landuse" color="194,194,130" fill="1" layer="-3.00" shape="1212.972451,1003.290946 1216.468874,1004.020973 1219.380936,990.444634 1216.894399,989.882225 1216.089327,994.405846 1215.409842,996.307815 1214.256379,998.416314 1213.683559,1000.232871 1212.972451,1003.290946"/>
    <poly id="1072670608" type="landuse" color="194,194,130" fill="1" layer="-3.00" shape="1221.408770,966.613033 1222.546318,966.951865 1223.771308,964.701136 1224.677971,960.681646 1225.704069,958.613356 1226.890539,956.405834 1227.608412,953.147709 1224.956062,952.446179 1221.408770,966.613033"/>
    <poly id="1072670609" type="landuse" color="194,194,130" fill="1" layer="-3.00" shape="1226.189677,947.525343 1228.859091,948.160689 1230.810211,939.992844 1228.133390,939.357246 1226.189677,947.525343"/>
    <poly id="1072670610" type="landuse" color="194,194,130" fill="1" layer="-3.00" shape="1232.613316,921.939522 1235.196039,922.727717 1237.646924,914.688016 1235.056794,913.899570 1232.613316,921.939522"/>
    <poly id="1072670611" type="landuse" color="194,194,130" fill="1" layer="-3.00" shape="1229.813315,932.415302 1232.434181,933.171404 1233.458370,929.623203 1230.837503,928.867101 1229.813315,932.415302"/>
    <poly id="1072670612" type="landuse" color="194,194,130" fill="1" layer="-3.00" shape="1237.810171,905.024457 1240.009744,905.744082 1242.581638,897.853116 1240.382062,897.133490 1237.810171,905.024457"/>
    <poly id="1072670613" type="landuse" color="194,194,130" fill="1" layer="-3.00" shape="1241.870250,892.577307 1244.575859,893.458668 1247.153291,885.623524 1244.440275,884.741911 1241.870250,892.577307"/>
    <poly id="1072670614" type="landuse" color="194,194,130" fill="1" layer="-3.00" shape="1247.533260,875.689117 1250.341413,876.607324 1252.825023,869.136193 1250.017242,868.206871 1247.533260,875.689117"/>
    <poly id="1072670615" type="landuse" color="194,194,130" fill="1" layer="-3.00" shape="1263.093242,830.906822 1265.845455,831.945540 1267.438636,827.793467 1264.694201,826.743885 1263.093242,830.906822"/>
    <poly id="1072670616" type="landuse" color="194,194,130" fill="1" layer="-3.00" shape="1261.557697,835.327883 1264.135577,836.260572 1265.434893,832.688287 1262.857012,831.755598 1261.557697,835.327883"/>
    <poly id="1072670617" type="landuse" color="194,194,130" fill="1" layer="-3.00" shape="1258.456279,843.312226 1261.247011,844.307736 1262.318727,841.328604 1259.528369,840.321980 1258.456279,843.312226"/>
    <poly id="1072670618" type="amenity" color="237,199,199" fill="1" layer="-1.00" shape="1260.367951,838.948375 1262.535303,839.744805 1263.292991,837.723088 1261.126014,836.915543 1260.367951,838.948375"/>
    <poly id="1072670619" type="landuse" color="194,194,130" fill="1" layer="-3.00" shape="1271.182821,809.338390 1273.976571,810.244993 1275.075120,806.910716 1272.289148,805.993249 1271.182821,809.338390"/>
    <poly id="1073026753" type="landuse" color="194,194,130" fill="1" layer="-3.00" shape="1010.150456,1664.056052 1010.513888,1663.389587 1066.436878,1677.660521 1065.820956,1679.219721 1058.892949,1676.960873 1010.150456,1664.056052"/>
    <poly id="1073026754" type="landuse" color="194,194,130" fill="1" layer="-3.00" shape="1006.915191,1668.998405 1008.382974,1666.355273 1044.988045,1675.868564 1062.832553,1680.798998 1070.625615,1683.999431 1073.580940,1686.914213 1076.032963,1687.831466 1074.653717,1690.266163 1073.193819,1690.917873 1072.047947,1692.147641 1065.939530,1712.603706 1067.905428,1714.528203 1066.686879,1718.570564 1064.792892,1724.837717 1064.058895,1726.381806 1059.391870,1725.211782 1070.666557,1689.374990 1069.950920,1686.201993 1056.335112,1681.814794 1056.663976,1680.635339 1047.953986,1678.249611 1047.633652,1679.395974 1006.915191,1668.998405"/>
    <poly id="1073026755" type="landuse" color="194,194,130" fill="1" layer="-3.00" shape="1008.247138,1660.275537 1017.690985,1659.804157 1029.228595,1660.983422 1041.152562,1664.111786 1068.189999,1672.712686 1067.134532,1675.436479 1008.247138,1660.275537"/>
    <poly id="1073026756" type="landuse" color="194,194,130" fill="1" layer="-3.00" shape="1069.005550,1680.172819 1069.688202,1678.393338 1075.724609,1680.277182 1076.574568,1681.885853 1076.954162,1684.034983 1076.793697,1685.275754 1075.298870,1684.546579 1074.167580,1682.928413 1071.901311,1681.338704 1069.005550,1680.172819"/>
    <poly id="1073026758" type="landuse" color="194,194,130" fill="1" layer="-3.00" shape="1071.050195,1676.469883 1071.753853,1674.068018 1074.186377,1675.563198 1076.083583,1677.986078 1071.050195,1676.469883"/>
    <poly id="1073026760" type="landuse" color="194,194,130" fill="1" layer="-3.00" shape="1077.004888,1714.156571 1076.488765,1716.052938 1165.580832,1741.247027 1166.223319,1739.121273 1077.004888,1714.156571"/>
    <poly id="1073026761" type="landuse" color="194,194,130" fill="1" layer="-3.00" shape="1083.337954,1690.559252 1083.176323,1693.591376 1084.139542,1696.895124 1086.463588,1700.066775 1088.561541,1701.372643 1178.463229,1726.082422 1183.872932,1724.573842 1184.638145,1723.642788 1140.873354,1710.626728 1083.337954,1690.559252"/>
    <poly id="1073026762" type="landuse" color="194,194,130" fill="1" layer="-3.00" shape="1084.052868,1687.823968 1085.129782,1686.002162 1087.385623,1684.387046 1145.208035,1704.297349 1188.521563,1719.045089 1187.313337,1720.584276 1185.940839,1721.939890 1141.760551,1707.619099 1084.052868,1687.823968"/>
    <poly id="1073026763" type="landuse" color="194,194,130" fill="1" layer="-3.00" shape="1089.541666,1682.434762 1091.154612,1681.421041 1093.248013,1681.324797 1188.085830,1713.511543 1189.048680,1715.068413 1189.502468,1716.774991 1089.541666,1682.434762"/>
    <poly id="1073026769" type="landuse" color="194,194,130" fill="1" layer="-3.00" shape="1199.820448,1722.241703 1198.537989,1721.808960 1195.545438,1723.510421 1194.493367,1724.376153 1198.856729,1725.758568 1199.820448,1722.241703"/>
    <poly id="1073026771" type="landuse" color="194,194,130" fill="1" layer="-3.00" shape="1204.935320,1721.123746 1204.064280,1720.359969 1204.152137,1719.294775 1205.347942,1719.001359 1249.747184,1730.125571 1283.448323,1738.696725 1284.648640,1739.805441 1284.534108,1741.659728 1204.935320,1721.123746"/>
    <poly id="1073026772" type="landuse" color="194,194,130" fill="1" layer="-3.00" shape="1201.315849,1726.464709 1202.168519,1722.944095 1215.247648,1726.757197 1214.345024,1730.220489 1201.315849,1726.464709"/>
    <poly id="1073026773" type="landuse" color="194,194,130" fill="1" layer="-3.00" shape="1198.557243,1736.163024 1200.373149,1729.359189 1213.454141,1733.116717 1211.756674,1739.924549 1198.557243,1736.163024"/>
    <poly id="1073026774" type="landuse" color="194,194,130" fill="1" layer="-3.00" shape="1198.525264,1738.865726 1201.842473,1742.694064 1206.521111,1741.105183 1198.525264,1738.865726"/>
    <poly id="1073026775" type="landuse" color="194,194,130" fill="1" layer="-3.00" shape="1216.425274,1730.513281 1217.321893,1727.227813 1255.392165,1736.791992 1257.247988,1741.972959 1216.425274,1730.513281"/>
    <poly id="1073026776" type="landuse" color="194,194,130" fill="1" layer="-3.00" shape="1213.830914,1740.395164 1215.419210,1733.528012 1255.832241,1743.950189 1253.841863,1750.870510 1213.830914,1740.395164"/>
    <poly id="1073026777" type="landuse" color="194,194,130" fill="1" layer="-3.00" shape="1358.282145,1799.763115 1360.335109,1790.775374 1366.734409,1792.004205 1365.407500,1796.176372 1363.073230,1798.356191 1360.712308,1799.789622 1358.282145,1799.763115"/>
    <poly id="1073026778" type="landuse" color="194,194,130" fill="1" layer="-3.00" shape="1210.473927,1748.059335 1212.076129,1742.316447 1253.154818,1753.217285 1251.437876,1758.845021 1210.473927,1748.059335"/>
    <poly id="1073026779" type="landuse" color="194,194,130" fill="1" layer="-3.00" shape="1257.699558,1737.381766 1259.120667,1742.047348 1280.277292,1747.435305 1283.219639,1743.929668 1257.699558,1737.381766"/>
    <poly id="1073026780" type="landuse" color="194,194,130" fill="1" layer="-3.00" shape="1433.040339,1814.796849 1432.137589,1818.260110 1429.629638,1813.958287 1433.040339,1814.796849"/>
    <poly id="1073026781" type="landuse" color="194,194,130" fill="1" layer="-3.00" shape="1283.982038,1748.127935 1286.681634,1745.226066 1346.478390,1759.975658 1373.668862,1767.314796 1372.366984,1772.500339 1283.982038,1748.127935"/>
    <poly id="1073026782" type="landuse" color="194,194,130" fill="1" layer="-3.00" shape="1288.347548,1742.645327 1289.474361,1741.103409 1291.183361,1740.538057 1353.425995,1756.605424 1390.229586,1766.795321 1387.921859,1768.408567 1288.347548,1742.645327"/>
    <poly id="1073026783" type="landuse" color="194,194,130" fill="1" layer="-3.00" shape="1374.613734,1772.910085 1376.017272,1768.006147 1392.016169,1772.485828 1393.123520,1778.097740 1374.613734,1772.910085"/>
    <poly id="1073026784" type="landuse" color="194,194,130" fill="1" layer="-3.00" shape="1394.578785,1773.418089 1395.421603,1778.742891 1410.056365,1783.232143 1406.765271,1777.101329 1394.578785,1773.418089"/>
    <poly id="1073026785" type="landuse" color="194,194,130" fill="1" layer="-3.00" shape="1394.543042,1767.898036 1396.240876,1771.171050 1512.005408,1807.342155 1517.553978,1810.055615 1521.827843,1813.860883 1523.111649,1814.471776 1521.201516,1812.437729 1516.259704,1808.220431 1507.046668,1803.624995 1394.543042,1767.898036"/>
    <poly id="1073026786" type="landuse" color="194,194,130" fill="1" layer="-3.00" shape="1410.068217,1778.058627 1413.139198,1783.903833 1448.535893,1794.046559 1458.517665,1796.075369 1466.141316,1796.166287 1471.748929,1797.134803 1476.548370,1798.988382 1481.580006,1802.084883 1484.421959,1803.961277 1488.108149,1806.077635 1496.075239,1809.162169 1501.157253,1805.729012 1458.518994,1792.748528 1410.068217,1778.058627"/>