<configuration>
    <input>
        <net-file value="test.net.xml" />
        <route-files value="trips.trips.xml" />
        <additional-files value="map.poly.xml"/>
    </input>
</configuration>
